<configuration>
    <input>
        <net-file value="test.net.xml"/>
        <route-files value="hello.rou.xml"/>
    </input>
    <time>
        <begin value="0"/>
        <end value="50"/>
    </time>
</configuration>